LTspice 24.1.9 for Windows
Circuit: C:\Users\gwert\_itmo\схемотехника\lab1\inverter_nand2_test.net
Start Time: Sat Oct 18 18:26:23 2025
solver = Normal
Maximum thread count: 12
tnom = 27
temp = 27
method = trap
WARNING: Node x1:x1:n002 is floating.
WARNING: Node x1:x1:n001 is floating.

Direct Newton iteration for .op point succeeded.
Total elapsed time: 0.564 seconds.

Files loaded:
C:\Users\gwert\_itmo\схемотехника\lab1\inverter_nand2_test.net
C:\Users\gwert\AppData\Local\LTspice\lib\cmp\standard.mos
C:\Users\gwert\_itmo\схемотехника\lab1\90nm_bulk.txt

