LTspice 24.1.9 for Windows
Circuit: C:\Users\gwert\_itmo\схемотехника\lab1\nand2_test.net
Start Time: Wed Oct 15 13:24:10 2025
solver = Normal
Maximum thread count: 12
tnom = 27
temp = 27
method = trap
WARNING: Node x1:n002 is floating.
WARNING: Node x1:n001 is floating.

Direct Newton iteration for .op point succeeded.
Total elapsed time: 0.779 seconds.

Files loaded:
C:\Users\gwert\_itmo\схемотехника\lab1\nand2_test.net
C:\Users\gwert\AppData\Local\LTspice\lib\cmp\standard.mos
C:\Users\gwert\_itmo\схемотехника\lab1\90nm_bulk.txt

t_in_r: V(n002)={0.2} AT 1.00200000004e-09
t_out_f: V(n003)={0.1} AT 1.13315956421e-09
t_10: 't_out_f - t_in_r'=1.31159564169e-10
f_10: '1 / t_10'=7624301028.58
t_in_f: V(n002)={0.8} AT 3.01200000017e-09
t_out_r: V(n003)={0.9} AT 3.11738525172e-09
t_01: 't_out_r - t_in_f'=1.05385251555e-10
f_01: '1 / t_01'=9488993813.11
